7
Structure 0; Occurance: 71375
C 1.0 0.0 0.0
C 2.0 0.0 0.0
C 3.0 0.0 0.0
C 4.0 0.0 0.0
C 5.0 0.0 0.0
C 6.0 0.0 0.0
C 7.0 0.0 0.0
7
Structure 1; Occurance: 44451
C 2.0455695582949924 -0.27677513082561733 0.0
C 2.8296265901700495 0.37282291648262517 0.0
C 2.9915844941071823 -0.6246825131293274 0.0
C 3.970808429533177 -0.35017063510538055 0.0
C 4.922048100853026 0.02665503588092723 0.0
C 5.7312553468251295 0.6557819833830617 0.0
C 6.687581930495433 1.003816120803193 0.0
7
Structure 2; Occurance: 30138
C 2.244204537904774 -0.10599951972604328 0.0
C 3.208519564567436 0.2123470833877342 0.0
C 3.021521908634678 -0.7806822751621905 0.0
C 3.9776511890826405 -0.44616976979194145 0.0
C 4.781987942203708 0.17154493065122284 0.0
C 5.629373719040238 0.7363887928536894 0.0
C 6.609056884705658 0.9944525865574253 0.0
7
Structure 3; Occurance: 23681
C 2.5213630715894184 -0.3126741393185749 0.0
C 2.927391652520867 0.6125546801118448 0.0
C 3.526487590193199 -0.20133330960602827 0.0
C 3.9375312342149646 0.731633024752534 0.0
C 4.531449435217883 -0.09154269362328257 0.0
C 5.3709045441465255 0.4770413320348149 0.0
C 6.001360190498135 1.2756127528852554 0.0
7
Structure 4; Occurance: 20116
C 2.8753453525041857 0.12276252539305549 0.0
C 3.12301826178736 1.1121758758954292 0.0
C 3.8521469360470824 0.39906632044871276 0.0
C 4.106156262057536 1.3801058336063727 0.0
C 4.829534994134018 0.6686645113364773 0.0
C 5.084341164844785 1.6458040140727752 0.0
C 5.97466744410096 2.162626980646953 0.0
7
Structure 5; Occurance: 23808
C 3.2764343371600195 1.5341372537753046 0.0
C 4.285561209984813 1.6874041735898653 0.0
C 3.909210506492577 0.7462035550496924 0.0
C 4.913538371546017 0.8971954554119849 0.0
C 4.554311587064873 -0.04890863052093027 0.0
C 5.554473830826076 0.10563373923649308 0.0
C 5.912663325797298 1.0576388813776352 0.0
7
Structure 6; Occurance: 19129
C 1.9895589903516724 0.4938781697335021 0.0
C 2.979333133857226 0.2704311415767111 0.0
C 3.1915676477526103 -0.7183070242504034 0.0
C 3.9451399933672286 -0.029389563655212683 0.0
C 4.821970821563495 0.48790933748735005 0.0
C 5.65012310059003 1.0722199994530064 0.0
C 6.084310999594184 0.1541226936708883 0.0
7
Structure 7; Occurance: 8516
C 1.953834067645933 0.4311645671623651 0.0
C 2.9399536084945415 0.22489628949000995 0.0
C 3.290001708996146 -0.7265142471649162 0.0
C 3.9399075886848096 0.06361317347231782 0.0
C 4.938746359936896 0.2168790698843075 0.0
C 5.388346308624185 1.1305353220960384 0.0
C 5.950273000007976 0.28476054652948585 0.0
7
Structure 8; Occurance: 5673
C 2.2776062337315808 0.249497796604437 0.0
C 3.2665943857644857 0.027443777130079103 0.0
C 4.213068250948142 -0.3291538627518948 0.0
C 4.052928372572555 0.6745324021155327 0.0
C 4.997831811495304 0.3127503695449943 0.0
C 5.365257863359426 1.2597476143456476 0.0
C 5.995011152621005 0.4626482585383015 0.0
7
Structure 9; Occurance: 43625
C 2.9193871572008923 -0.6019264043592286 0.0
C 3.829241925958797 -1.0564900500617425 0.0
C 4.667575249341746 -0.4702813266743822 0.0
C 3.757871299333786 -0.037092866726830855 0.0
C 4.588064451324201 0.5464105868639308 0.0
C 5.434843439960121 1.1161651542010926 0.0
C 5.500791719317985 0.1024926967005141 0.0
7
Structure 10; Occurance: 12464
C 2.8131623831319352 -0.8403053032800681 0.0
C 2.6434933953578006 0.15777768169638803 0.0
C 3.6064833376506136 -0.2156222633522195 0.0
C 4.222486375894369 0.5844456738560257 0.0
C 5.166999688628298 0.21619681662391163 0.0
C 6.095336612262592 -0.21051412678646433 0.0
C 5.262739012640872 -0.7874621072221206 0.0
7
Structure 11; Occurance: 1323
C 2.9166253523488312 -0.42133773412857317 0.0
C 2.819691729978319 0.5972445909703842 0.0
C 3.7420227844017244 0.166891531251148 0.0
C 4.228928470043468 1.059277055334792 0.0
C 4.755173032499104 0.19278183781243693 0.0
C 5.770388156159252 0.18726420463814827 0.0
C 5.259848512827291 -0.6901679369475203 0.0
7
Structure 12; Occurance: 23389
C 2.7532611899420685 -0.4824024551218779 0.0
C 2.9300675090519723 0.5203663179234853 0.0
C 3.714182171237778 -0.13867535884405383 0.0
C 3.8853626618522825 0.8599387898811228 0.0
C 4.66578094512725 0.20306267343085313 0.0
C 5.647750487747811 0.45274907600617265 0.0
C 5.368282288330224 -0.5250222837789691 0.0
7
Structure 13; Occurance: 1029
C 2.3122293274463277 0.4460065959175092 0.0
C 3.1242011933187506 -0.17490541167541268 0.0
C 3.7030863841572077 0.668031894177759 0.0
C 4.132143255397969 -0.2650334387915779 0.0
C 4.914396183130735 -0.9114302496166509 0.0
C 5.0835734795204095 0.08748519062182329 0.0
C 5.874151409380631 0.7252910805451022 0.0
7
Structure 14; Occurance: 611
C 2.6522088592696997 0.7998027018352961 0.0
C 3.123342659339636 -0.09547069133817848 0.0
C 3.9638179039480015 0.4687666977861899 0.0
C 4.0340365803696745 -0.5409621588850126 0.0
C 4.934339585506172 -0.9933664719654892 0.0
C 4.8723091031290116 0.025152464166496673 0.0
C 5.6461210995193 0.6769305043248574 0.0
7
Structure 15; Occurance: 1526
C 2.7037475626164813 0.6149939076186977 0.0
C 2.956791078767964 -0.3731946432925894 0.0
C 3.676108625522889 0.34265282897033145 0.0
C 3.946192644085521 -0.6336719271845315 0.0
C 4.928572004564028 -0.8941328252248073 0.0
C 4.660101686922099 0.08578333564813835 0.0
C 5.651686933776888 0.33269256439526923 0.0
7
Structure 16; Occurance: 26250
C 1.7808940391359138 -0.8226666865534698 0.0
C 2.3488069573917594 -1.6621085332888872 0.0
C 2.799652413971174 -0.7455012550474328 0.0
C 3.1826507671391266 0.20405480878871482 0.0
C 3.582471216832423 1.1346930709939747 0.0
C 4.187131098998222 0.3181630318923909 0.0
C 4.594419133881466 1.2470593077020724 0.0
7
Structure 17; Occurance: 17368
C 3.3262195888317527 0.5587906655045463 0.0
C 4.116460595770796 -0.08822792218123468 0.0
C 4.27478105012189 0.9170397664577256 0.0
C 5.066154020224363 0.28013436729291663 0.0
C 5.878131443407926 0.8932789840006998 0.0
C 5.9972592429557485 -0.11331669511705322 0.0
C 6.814121960754059 0.4965140520339253 0.0
7
Structure 18; Occurance: 7454
C 2.7055947228255324 -1.993435705210396 0.0
C 3.6481403424444943 -1.62378457450711 0.0
C 2.8541377146447604 -0.988461964259421 0.0
C 3.803787166853279 -0.617118578221008 0.0
C 4.029191053858013 0.374186862254883 0.0
C 4.769741419024441 -0.3169077531467818 0.0
C 5.693956957381273 -0.7419048048280303 0.0
7
Structure 19; Occurance: 1898
C 3.3602893004923913 -2.5063579725851803 0.0
C 3.854982701772448 -1.6251016747064244 0.0
C 2.840803838539069 -1.6377710060899893 0.0
C 3.3358886119631346 -0.7538540831571925 0.0
C 3.8346594104078946 0.12543951487133886 0.0
C 4.352184284803738 -0.7457277683808937 0.0
C 4.8681401178464085 -1.6234250146929718 0.0
7
Structure 20; Occurance: 1680
C 1.4350400732622168 -1.3850967670720074 0.0
C 1.8498161688536585 -0.4583840609659509 0.0
C 2.712907419255681 0.07483480923872131 0.0
C 3.7206594827776587 0.26763178116708375 0.0
C 4.064046711690588 1.2201455859719743 0.0
C 4.71929887972465 0.44269773468951384 0.0
C 4.362965581071194 -0.5117556798390485 0.0
7
Structure 21; Occurance: 7897
C 1.7025009082433402 0.846479906726652 0.0
C 2.316158894663656 0.04568787968145311 0.0
C 3.219527916881297 -0.4163887823494255 0.0
C 3.5903724287162846 0.5251455672120716 0.0
C 4.221470812310806 -0.264677933897638 0.0
C 5.208207376956713 -0.5230827993595325 0.0
C 6.212255899393308 -0.35663490850018403 0.0
7
Structure 22; Occurance: 10828
C 1.430393081447801 1.0380742948219797 0.0
C 2.269762534745189 0.4556497554036475 0.0
C 2.849957108292692 -0.3862563331485401 0.0
C 3.276416146583018 0.5363895525663639 0.0
C 3.8628787271558758 -0.29507174981878026 0.0
C 4.835810071963292 -0.5646471862786043 0.0
C 5.827592237354277 -0.31882856147495836 0.0
7
Structure 23; Occurance: 3658
C 2.951249840609689 -0.21283708792419853 0.0
C 3.4904306424016025 0.6421191096815762 0.0
C 4.303986725269965 0.030736821834200644 0.0
C 4.430022286329047 1.043508587689355 0.0
C 5.237504256941486 0.4329026410909188 0.0
C 5.357240400728615 1.4435375012305725 0.0
C 6.163263025458904 2.0694916513996886 0.0
7
Structure 24; Occurance: 5743
C 1.964092486763969 -0.4180673956076404 0.0
C 2.616770489498038 0.3590919663199984 0.0
C 2.9703454304641688 -0.5921808343700754 0.0
C 3.9125026931113163 -0.9727381819453579 0.0
C 3.763979861383514 0.035462229271904816 0.0
C 4.440194878661373 0.7903044056290316 0.0
C 4.933340968439353 1.6721294366036688 0.0
7
Structure 25; Occurance: 1483
C 2.1256672130368175 0.1599038540856469 0.0
C 2.810930091990116 0.905231990644163 0.0
C 3.12259234747823 -0.06423649908074254 0.0
C 4.120844350550647 -0.2832455509828184 0.0
C 3.79877106368904 0.6846820772862906 0.0
C 4.270154849400685 1.5837300342224814 0.0
C 5.161939650629806 1.1045217430619756 0.0
7
Structure 26; Occurance: 535
C 2.2227079732222155 0.09255412370251069 0.0
C 2.8841774749318945 0.8577130719311042 0.0
C 3.2214346756296393 -0.10202495166227439 0.0
C 4.215040597956052 -0.2773612951412527 0.0
C 3.880276918614335 0.6816897964483578 0.0
C 4.237998352049213 1.6347686137928183 0.0
C 4.8800042243562425 0.8477873605094752 0.0
7
Structure 27; Occurance: 147
C 2.7257222806204187 -0.9042393415077985 0.0
C 2.9072487213368317 0.09853959523395124 0.0
C 3.864573878082305 0.4367617441247971 0.0
C 3.678835039421008 -0.5606624376924324 0.0
C 3.864960413983178 -1.563109412526253 0.0
C 4.631906470806635 -0.9004531554047442 0.0
C 5.6415434132211635 -0.9458291956338307 0.0
7
Structure 28; Occurance: 5286
C 2.8687901223033943 -1.2584569688307432 0.0
C 2.594861203197349 -0.2823756362452934 0.0
C 3.303030951445626 0.44652386838806185 0.0
C 3.5824752341322363 -0.5349449042390585 0.0
C 3.8495344383043113 -1.5112239759247779 0.0
C 4.566682443965263 -0.791040914815615 0.0
C 5.550744474053016 -1.0311866880635272 0.0
7
Structure 29; Occurance: 1765
C 2.047579418626524 -0.943044583698096 0.0
C 2.0188971398871005 0.07559022632890638 0.0
C 2.879247601636604 0.6065840870902579 0.0
C 2.9176117209808066 -0.40562560806175985 0.0
C 2.937439065985379 -1.4173300424391184 0.0
C 3.8095600664587668 -0.8845907412747402 0.0
C 3.7731334322380965 0.13080766372693672 0.0
7
Structure 30; Occurance: 291
C 4.1103614687751255 -0.11955036456101759 0.0
C 3.7890643074516133 0.8426505712317682 0.0
C 4.7868934235075535 0.634977202031802 0.0
C 5.096469975029042 -0.34441767928327144 0.0
C 5.2195831346563075 -1.350922018632973 0.0
C 6.233879254803914 -1.2924822717193316 0.0
C 6.107358596891284 -0.2797632329038331 0.0
7
Structure 31; Occurance: 33
C 3.6805969957459412 -1.0790811232354278 0.0
C 3.034530360240417 -0.30027629052613897 0.0
C 3.13683570123128 0.7074604343800887 0.0
C 4.113579774364274 0.40217583632346876 0.0
C 4.5276858425850275 -0.5232302543834225 0.0
C 5.122102665027516 0.3014602165807034 0.0
C 6.136603542134298 0.35914051509777545 0.0
7
Structure 32; Occurance: 98
C 3.814282271983697 -1.351977198965531 0.0
C 3.190288607692238 -0.5473396378855886 0.0
C 3.1173461206385746 0.4604295564133926 0.0
C 4.030012827578314 0.016977039590809283 0.0
C 4.653014383777428 -0.78392309052993 0.0
C 5.0397464735381305 0.15366919592915043 0.0
C 5.930421841831781 0.6398952548709433 0.0
7
Structure 33; Occurance: 403
C 2.881375392462831 0.8841848815628719 0.0
C 3.528054045219344 0.09398791747541028 0.0
C 2.7854570441144326 -0.5946927858573068 0.0
C 3.762023045099822 -0.8943436843049065 0.0
C 4.496737268013508 -0.19647441161003043 0.0
C 5.437351110783735 -0.5631988530823073 0.0
C 5.296000069642068 0.442480745020907 0.0
7
Structure 34; Occurance: 278
C 3.163178225397867 1.097585178685877 0.0
C 4.018156082408889 0.55309258394 0.0
C 4.063448933734862 1.5662944538780554 0.0
C 5.074301778991549 1.5610080661249264 0.0
C 5.031560559048334 0.5508649522886017 0.0
C 5.231093707128359 -0.44180790049653285 0.0
C 5.996957420004116 0.21522334820969977 0.0
7
Structure 35; Occurance: 543
C 3.201288692427652 0.7022266206162572 0.0
C 4.1579723011444445 0.3797645884070745 0.0
C 3.9635344965583856 1.371369787302833 0.0
C 4.973412983821854 1.3749212305368053 0.0
C 5.1723209568241515 0.38015719538505405 0.0
C 5.263707684701184 -0.6259024687121102 0.0
C 6.151787865466319 -0.1235598866516115 0.0
7
Structure 36; Occurance: 1423
C 2.3990846603358245 0.7291336980611759 0.0
C 2.4469129017992777 -0.2777221633437294 0.0
C 3.318231152438674 0.25604733046459455 0.0
C 3.3401033718342408 -0.7643720236513956 0.0
C 4.3539255559974945 -0.7524435270095918 0.0
C 4.329812542016535 0.2599412823903602 0.0
C 5.223349171355614 -0.22289080974168934 0.0
7
Structure 37; Occurance: 370
C 2.7313463888023675 0.17368063810079387 0.0
C 3.6932410147815538 0.4945208863989482 0.0
C 4.492541534209668 -0.15608520798205056 0.0
C 4.645136870635413 0.8473046157127052 0.0
C 5.476192294688977 0.10817342281302923 0.0
C 5.620903047414365 1.1167521147088677 0.0
C 6.428311202630498 0.4870467534382484 0.0
7
Structure 38; Occurance: 760
C 3.1368615441609715 0.29726478536871925 0.0
C 2.4794721941785167 1.0604638777233393 0.0
C 3.4659615629809593 1.2650912793403597 0.0
C 4.136095591886948 0.5029075142342886 0.0
C 4.0647240979894095 -0.5072981426301169 0.0
C 4.983589502479535 -0.06986829220779325 0.0
C 5.046319721347566 0.9412001593848728 0.0
7
Structure 39; Occurance: 315
C 2.086920662487554 0.9056257975770377 0.0
C 1.6267676545448957 1.8028837051935118 0.0
C 2.6444326930189757 1.749516083836526 0.0
C 3.6286612629256867 1.4682727896223524 0.0
C 4.609390490729792 1.7497741213360587 0.0
C 4.93228363575235 0.780555489150623 0.0
C 3.957791688327975 0.5095363774695305 0.0
7
Structure 40; Occurance: 1194
C 2.384757653943178 0.8981115768401576 0.0
C 1.9838979050963412 1.827346264913454 0.0
C 2.9956494739945363 1.7131250060787966 0.0
C 3.9726099066465173 1.433939799731148 0.0
C 4.9506147997987835 1.6850510594555255 0.0
C 4.678052865025315 0.707599811648406 0.0
C 3.7013457367698175 0.4519068431756844 0.0
7
Structure 41; Occurance: 287
C 2.4361189362180693 1.0230038898892582 0.0
C 3.4457716120842545 1.0290648237625477 0.0
C 4.274517308577711 1.6062383653000458 0.0
C 4.369988222409808 0.6025686985268056 0.0
C 5.1986264562796975 1.192186405103608 0.0
C 6.048500924402465 0.6304362239628011 0.0
C 5.212589345740621 0.047732743722710295 0.0
7
Structure 42; Occurance: 105
C 2.2095677130572278 0.4510609525214647 0.0
C 3.2214339267170664 0.43594266269050275 0.0
C 2.8966201735553883 -0.5212939330411523 0.0
C 3.902262596573017 -0.6965760004122573 0.0
C 4.215856603042797 0.2607585412666378 0.0
C 5.229970839882829 0.3197308371090212 0.0
C 6.215942714316301 0.5401075127625509 0.0
7
Structure 43; Occurance: 520
C 2.278328688511552 0.39362470818657286 0.0
C 3.262962034255587 0.6275427039760567 0.0
C 3.2115999384368257 -0.384200942356112 0.0
C 4.0634374161180835 -0.934356960292138 0.0
C 4.112776875547566 0.07795018129006505 0.0
C 5.1117622696206775 0.218061708723355 0.0
C 6.079324336544836 0.5171022376062848 0.0
7
Structure 44; Occurance: 43
C 3.781106567090567 1.8764882103738472 0.0
C 3.990315556022123 0.8766259715782071 0.0
C 3.8360246522644577 -0.12830653785745527 0.0
C 4.783747709659808 0.24593573224861892 0.0
C 5.01882266484345 -0.7415689228468818 0.0
C 5.967858035797338 -0.3871260233749292 0.0
C 5.72541513936943 0.6199549791362885 0.0
7
Structure 45; Occurance: 298
C 4.485755118577261 1.550534624946386 0.0
C 3.5572595716579585 1.1332556631097275 0.0
C 3.2759555438756838 0.1589075182447804 0.0
C 4.267509948144494 0.40865013212076423 0.0
C 5.101407631679487 -0.18146599666673097 0.0
C 6.018722863688233 0.24576905859547565 0.0
C 5.19318106139573 0.8296084873862953 0.0
7
Structure 46; Occurance: 185
C 1.6005722123953636 1.0919478850643438 0.0
C 2.513830617688444 0.6354193683996842 0.0
C 2.3739382693376196 -0.37348882963319396 0.0
C 3.3151977939615893 0.007634290429643261 0.0
C 3.4523674542444205 1.0178258657015018 0.0
C 4.248888850751547 0.3914669276638311 0.0
C 4.113451593534957 -0.6115892294749565 0.0
7
Structure 47; Occurance: 642
C 2.0985587536679415 0.5439230864558132 0.0
C 3.0775798295243506 0.803186434966812 0.0
C 3.503052818897211 -0.11855107984766904 0.0
C 3.9406358789208284 -1.035321026766523 0.0
C 4.516988278226304 -0.19615243996249954 0.0
C 5.090370148909036 0.6393378755083651 0.0
C 4.087202066280749 0.719171195303741 0.0
7
Structure 48; Occurance: 602
C 1.568843307708309 0.20915997125354466 0.0
C 2.421294583129685 -0.3515717249848014 0.0
C 3.342198820775523 0.09738724854765393 0.0
C 4.300842475514348 0.43229842665180596 0.0
C 4.515164389004267 -0.5685004253584766 0.0
C 5.509510606460988 -0.34855263095988026 0.0
C 5.290690114641379 0.6415178273457276 0.0
7
Structure 49; Occurance: 771
C 2.7670387535004326 0.11832501047365392 0.0
C 3.132791232430111 -0.8307183137300289 0.0
C 4.107678457729311 -0.541196320663752 0.0
C 3.9883996481155455 -1.5487175896992298 0.0
C 4.804236865069338 -2.1556977551074916 0.0
C 4.915718113163901 -1.1468207995939266 0.0
C 5.925703050772974 -1.1781847696866605 0.0
7
Structure 50; Occurance: 10
C 2.010892944212367 -0.6708024085269748 0.0
C 2.1424679513265517 0.3322405589701587 0.0
C 2.946994696554946 -0.28557068143857717 0.0
C 3.974990519971472 0.13295071444423293 0.0
C 3.7844323602348506 -0.8589368621255706 0.0
C 4.032775324020368 -1.8402428445692964 0.0
C 4.760022844807528 -1.1339464567453355 0.0
7
Structure 51; Occurance: 155
C 2.0442186659375077 -0.7594799531167029 0.0
C 2.3819997229152103 0.19505935153435502 0.0
C 3.394195001848175 0.13440496923373238 0.0
C 3.050190862226274 -0.8289928629712476 0.0
C 4.044674793345385 -0.6546398298950529 0.0
C 5.052998698511248 -0.5521786919098826 0.0
C 4.6459386375144955 -1.475910013312322 0.0
7
Structure 52; Occurance: 777
C 2.0632867732748466 -0.3392561325791262 0.0
C 2.729347192057991 0.4317618600161601 0.0
C 3.513769991522642 -0.21243796078571053 0.0
C 2.849962863187673 -0.9830435003226741 0.0
C 3.8437702215446543 -1.166363093102392 0.0
C 4.505030586718134 -0.40294941990486793 0.0
C 4.846739585520432 -1.3503785312092293 0.0
7
Structure 53; Occurance: 150
C 2.2794596606429076 1.968881736710803 0.0
C 3.2240404386494315 1.599966288472322 0.0
C 2.9997928531595153 0.6040933964409799 0.0
C 3.7508514070302295 -0.08660327362063668 0.0
C 3.968947299761369 0.9013395855814196 0.0
C 4.957475363042657 0.6544056490695259 0.0
C 4.6704390321238 1.630898883744963 0.0
7
Structure 54; Occurance: 107
C 2.2633377984835343 -0.04979896652326571 0.0
C 2.624237940844709 0.9949175318873125 0.0
C 3.2645567976556036 0.20880903361472794 0.0
C 4.25103746524904 -0.017848263980421653 0.0
C 5.048440807457347 -0.654904082653128 0.0
C 5.21228386806631 0.3393694487228744 0.0
C 5.994587015591348 -0.2956950932080518 0.0
7
Structure 55; Occurance: 141
C 1.6798802033491493 -0.1506857360974588 0.0
C 2.688646297314797 -0.0412215820679631 0.0
C 3.6522614107060183 0.27478341704937764 0.0
C 3.440307080520747 -0.7130401268572615 0.0
C 4.4385031747543975 -0.5499966269637392 0.0
C 4.647354589931793 0.4557163797671553 0.0
C 5.668348929815644 0.5138856371028935 0.0
7
Structure 56; Occurance: 142
C 1.8020938331041605 1.1658588921582442 0.0
C 1.919412168667732 0.017351537657185067 0.0
C 2.691447964322318 0.6681761881355387 0.0
C 3.5499830588233205 0.13140358265774976 0.0
C 4.52026021189307 -0.16970130766545816 0.0
C 5.158409950345605 0.6169717719502962 0.0
C 5.982350214356155 0.03386527918934673 0.0
7
Structure 57; Occurance: 254
C 2.798541177398602 -1.1065371439268268 0.0
C 2.5137620666920863 -0.13041194300214778 0.0
C 3.2130521140772355 0.6021128284416147 0.0
C 3.5030105353293095 -0.3773951245050673 0.0
C 4.195055670731846 0.3615551533551277 0.0
C 4.99607206668201 -0.2663364110956955 0.0
C 4.302087325094118 -1.0094236912373742 0.0
7
Structure 58; Occurance: 93
C 3.893345896029656 -0.2110627153621321 0.0
C 3.0348609713081283 0.32406932816964396 0.0
C 3.9258896088151602 0.8082893971847176 0.0
C 4.609562665103238 1.5560444405644296 0.0
C 4.916151889815583 0.5883236437205249 0.0
C 5.781054802335228 0.05540530979140319 0.0
C 4.882887817486513 -0.43168703077035303 0.0
7
Structure 59; Occurance: 24
C 1.7467068787502595 -1.741663871036121 0.0
C 2.4108708794885634 -0.9701067501094548 0.0
C 2.8198322260745656 0.08465847183265399 0.0
C 3.404231053350901 -0.744128569207933 0.0
C 3.9573087541759837 0.10698629834156191 0.0
C 4.5807505438489695 0.9101383943693098 0.0
C 4.964742465504484 -0.028788804811070656 0.0
7
Structure 60; Occurance: 161
C 3.034346162256165 0.4257830301714885 0.0
C 3.308055683248017 -0.5524510890154014 0.0
C 4.299590564641458 -0.8070837622872424 0.0
C 4.020425452563226 0.16981974734387578 0.0
C 5.037566489398462 0.14370814486089128 0.0
C 5.310754335977891 -0.8386348249859417 0.0
C 6.184040564740573 -0.3223534343337892 0.0
7
Structure 61; Occurance: 56
C 1.8736243938376098 0.42662701378011963 0.0
C 2.588910758661519 -0.290408566123806 0.0
C 3.5315293648460453 0.09335001700101199 0.0
C 4.5488828128703345 0.04821496581616115 0.0
C 4.612427394434842 -0.9653544775004607 0.0
C 5.5282256684630715 -0.22985483858163094 0.0
C 6.177024894906092 -1.009211072666265 0.0
7
Structure 62; Occurance: 263
C 2.9254140282328778 -0.6459215944280549 0.0
C 3.883513166299639 -0.32150119168113805 0.0
C 3.1162200849899366 0.3507513866669689 0.0
C 4.075679129923869 0.6698426816789692 0.0
C 5.041138349886862 0.37263158126110685 0.0
C 4.851150915204657 -0.6212756441997757 0.0
C 5.653379174569154 -1.236217297877583 0.0
7
Structure 63; Occurance: 394
C 1.9417045515155507 -0.7004879910186196 0.0
C 2.026330732813162 0.3064269303404427 0.0
C 3.0365521923264396 0.39351016261783955 0.0
C 2.9517654346192437 -0.6150831207255135 0.0
C 3.871870189422808 -0.17076540480371447 0.0
C 4.862366792410589 0.10176602805993867 0.0
C 5.585057665035131 0.8198104222422127 0.0
7
Structure 64; Occurance: 9
C 3.5626224486923426 1.4454467834005298 0.0
C 3.135123083572356 0.5208542933206609 0.0
C 4.080072554268649 0.1374892481222384 0.0
C 4.664126144017895 -0.6901267968338373 0.0
C 5.088908592210845 0.23010739456484078 0.0
C 4.500259254542223 1.0664836694222242 0.0
C 4.65657105205344 2.076755168959512 0.0
7
Structure 65; Occurance: 75
C 1.8571090559571102 -1.0136221196563133 0.0
C 2.3183571006407093 -0.10212801037707647 0.0
C 2.871899722522682 -0.9442587989178066 0.0
C 3.8984222444438363 -0.9370869824332388 0.0
C 4.829089268769899 -1.3582999251770864 0.0
C 5.72365170454565 -0.8943103519840813 0.0
C 5.618740942985748 -1.990291239253094 0.0
7
Structure 66; Occurance: 83
C 3.5079035235254206 0.4980504889257845 0.0
C 3.3178210151057113 -0.49077047897676 0.0
C 4.279595872108956 -0.16573193524439128 0.0
C 4.073683520607971 -1.1653023145453023 0.0
C 4.906562454338987 -1.753938130276217 0.0
C 5.793299449020426 -1.270306567920699 0.0
C 5.260829690546003 -0.41326402553430636 0.0
7
Structure 67; Occurance: 47
C 1.975993141635126 1.7631770616285636 0.0
C 2.8591010548256355 1.2655438034511926 0.0
C 3.456397317967349 0.43702717483740683 0.0
C 2.693523202309757 -0.23102981853435173 0.0
C 3.6527426993584515 -0.5727165940421017 0.0
C 4.416429361132621 0.09252690767531026 0.0
C 4.208108591979233 1.1139540946013493 0.0
7
Structure 68; Occurance: 50
C 2.3515346254387195 -0.17213895857108166 0.0
C 3.3605298355096958 -0.03342275229994885 0.0
C 3.4419388098302726 0.9780699994133478 0.0
C 4.275346244250134 1.5668625095689652 0.0
C 4.373493444677193 0.5497838074039495 0.0
C 4.277576211291424 -0.4593851115175326 0.0
C 5.217886645711342 -0.021447606312653644 0.0
7
Structure 69; Occurance: 27
C 2.770847201971853 0.6996579434273178 0.0
C 2.196582896795026 -0.13564818479825072 0.0
C 3.0787183954607045 -0.659849729584386 0.0
C 3.7896951268952477 0.06760451696429233 0.0
C 3.7078003677462568 1.0744298933315113 0.0
C 4.713498603015514 0.9146548189330249 0.0
C 5.140951718553209 1.848186423303025 0.0
7
Structure 70; Occurance: 12
C 2.584176627371248 -0.4401332272681203 0.0
C 1.9908750995056381 0.3953486251521935 0.0
C 2.9979332736946898 0.4857707246157751 0.0
C 3.592133845987135 -0.34387964284779954 0.0
C 4.19601473943159 -1.1692217370729447 0.0
C 4.581770795908246 -0.12276582780975294 0.0
C 5.542858985005805 0.19501276594555492 0.0
7
Structure 71; Occurance: 40
C 3.788201248006198 0.9670266099035808 0.0
C 2.7795927348380127 1.0994331374853057 0.0
C 3.174070804956371 0.1612415154131695 0.0
C 3.5648206504060775 -0.7756581552355476 0.0
C 4.1796679655455335 0.03154341716223263 0.0
C 5.193119685522051 0.11610077898601036 0.0
C 4.798058296320602 1.0503424135227837 0.0
7
Structure 72; Occurance: 28
C 4.022382933696203 -0.7224458801776376 0.0
C 4.124243111281218 0.29548525796671965 0.0
C 4.915543667345856 0.9451834975937573 0.0
C 5.726064455708914 0.33818253025308376 0.0
C 4.94754944310233 -0.30893964413945496 0.0
C 5.113232948730774 -1.3212096942689397 0.0
C 5.892105117785616 -0.6674713987195949 0.0
7
Structure 73; Occurance: 80
C 2.7287711992437673 -0.5293063497110491 0.0
C 3.7518120820488323 -0.45162186868767723 0.0
C 3.1791991197953937 0.3829474070076253 0.0
C 4.076600710185388 0.8592234344173191 0.0
C 4.962923687072691 0.36338413298222677 0.0
C 4.744186415593357 -0.6317707545636658 0.0
C 5.7097996612018775 -0.318856345850808 0.0
7
Structure 74; Occurance: 10
C 3.179980610811053 -1.0550606693101956 0.0
C 3.6730502906782823 -0.16739531472246996 0.0
C 3.7826751661756024 0.8432937731363414 0.0
C 4.739675573487235 0.47267274965858685 0.0
C 5.751316530314773 0.4905562481274554 0.0
C 5.271257477263681 -0.40067105741981146 0.0
C 4.379412993056087 -0.8802868904030362 0.0
7
Structure 75; Occurance: 9
C 3.238995576977901 -0.8413506458571003 0.0
C 3.8646507861061727 -0.043371263900789436 0.0
C 3.8361462249444402 0.9653361565872857 0.0
C 4.7287348158125315 0.48220706848948625 0.0
C 5.740299496880457 0.44889215661698006 0.0
C 5.201672907326468 -0.4176824186621 0.0
C 4.332207992484905 -0.9411274922069001 0.0
7
Structure 76; Occurance: 69
C 3.6264677531369847 0.8202145393144898 0.0
C 4.2887837116494305 0.056565791956469436 0.0
C 4.052304776814769 -0.9279745268849175 0.0
C 4.797220045605316 -1.611101084876742 0.0
C 5.031196739215144 -0.6270510540592301 0.0
C 5.2521280177707 0.36052402752380286 0.0
C 6.001644910199093 -0.3300591153633077 0.0
7
Structure 77; Occurance: 19
C 2.729642685048338 -0.5185528221350698 0.0
C 3.7059613174049293 -0.22771933975520228 0.0
C 3.3256060433132686 0.707201122300187 0.0
C 4.334414795019127 0.5651241227387276 0.0
C 5.334396492797486 0.4139234038053994 0.0
C 4.702125024561429 -0.37946615386676946 0.0
C 5.6453297928681305 -0.7494304937779636 0.0
7
Structure 78; Occurance: 15
C 1.745196478143096 0.18393920142894044 0.0
C 2.3215403796509633 -0.7972910429607027 0.0
C 2.753937900440326 0.11762362663963212 0.0
C 3.7203592055423558 -0.18052788963826835 0.0
C 3.4879218830933603 0.8148979323004343 0.0
C 4.455601838694327 0.5140880949289892 0.0
C 5.438353263184433 0.7711920304589381 0.0
7
Structure 79; Occurance: 30
C 2.191825203686823 -0.6614050276693189 0.0
C 3.2059605600753724 -0.716476632377651 0.0
C 2.7554478809490686 0.18748972142367024 0.0
C 3.6620972953082793 0.6349522479659929 0.0
C 4.67762159279002 0.5583109908108121 0.0
C 4.119922331876546 -0.2832128619984834 0.0
C 4.866131771261471 -0.9694871389878679 0.0
7
Structure 80; Occurance: 34
C 2.187674307276201 -0.5682476261752836 0.0
C 3.1599868842244074 -0.8450760274934664 0.0
C 2.925433969791447 0.14085013374475358 0.0
C 3.657214603507769 0.8471265362348096 0.0
C 4.628632679724637 0.558503393035669 0.0
C 3.8978991872914257 -0.14295518508330238 0.0
C 4.231527186582201 -1.105676608712047 0.0
7
Structure 81; Occurance: 56
C 1.863527533008785 -1.4354856334291843 0.0
C 2.4681000809657307 -0.624636015031816 0.0
C 2.647831049445042 0.3688238550285729 0.0
C 2.846547678170484 1.3560683759095662 0.0
C 3.6139017828053155 0.6981979724316386 0.0
C 3.4266573036584274 -0.29553253709290184 0.0
C 4.069615858831335 -1.0794238959643905 0.0
7
Structure 82; Occurance: 68
C 2.615648540416841 0.8260274230730767 0.0
C 2.576319682305129 -0.18358885094020305 0.0
C 3.477779621601928 0.28760479491714463 0.0
C 3.4411386252177296 -0.7245595658414165 0.0
C 4.432044863511277 -1.2548865689311766 0.0
C 4.339747209865298 -0.2434904384650253 0.0
C 5.250970484471186 0.19176606117098022 0.0
7
Structure 83; Occurance: 1
C 4.115470107440162 -0.5392540054948346 0.0
C 3.386481187198118 0.16789648591575693 0.0
C 3.139496572588727 1.1526315541964653 0.0
C 3.9090035317395717 1.8089441169273426 0.0
C 4.599819266474765 1.0603090871820966 0.0
C 4.910498864073022 0.0886845582574089 0.0
C 5.794856420055116 -0.39737460875668895 0.0
7
Structure 84; Occurance: 29
C 2.354170184783478 -2.650418177660513 0.0
C 3.2841307936574955 -2.2375815589437917 0.0
C 3.0396521958482228 -1.2506997730494753 0.0
C 3.7634138709698877 -0.5442850936242581 0.0
C 4.743537962417415 -0.8244318186228562 0.0
C 4.93870182667819 -1.9397976938505093 0.0
C 4.014543735073592 -1.5352005233677237 0.0
7
Structure 85; Occurance: 2
C 1.0835740694763951 -0.3531003988319552 0.0
C 2.0996720766734076 -0.31553931727690715 0.0
C 2.1508785629779 -1.3291862045275427 0.0
C 3.1468602259921425 -1.5112017611466 0.0
C 3.098642025546623 -0.5011006854948045 0.0
C 2.754598686112722 0.4540140652632335 0.0
C 3.4838871336708133 1.1546088322949306 0.0
7
Structure 86; Occurance: 1
C 1.814709338324196 0.604663958622157 0.0
C 2.782386352832481 0.9013692152826401 0.0
C 3.3678935147608926 0.07158060896706134 0.0
C 4.06348228811242 -0.8181890013891576 0.0
C 4.3756575284561094 0.1472744976265205 0.0
C 3.7932009219903677 0.9873282291951332 0.0
C 4.680993540754929 1.493669912510654 0.0
7
Structure 87; Occurance: 5
C 2.4209199631663756 -0.1047133071660697 0.0
C 2.581641828606037 -1.1097674037244387 0.0
C 3.5845311316236694 -0.9463054752419775 0.0
C 3.426336172347952 0.06255721572605918 0.0
C 4.341673914610211 0.4909601726360839 0.0
C 5.28653569154944 0.13149512442626857 0.0
C 4.499034198377568 -0.509405768160876 0.0
7
Structure 88; Occurance: 16
C 1.0199028534679162 0.29744115818081535 0.0
C 2.0204612637436754 0.4720003878257355 0.0
C 2.6619973046855487 -0.31591238305335656 0.0
C 2.977970713893272 0.7892401791158608 0.0
C 3.622207506908962 0.005207940183634558 0.0
C 4.6173037325269455 -0.1860684205276863 0.0
C 5.5586369743728605 -0.5639999088097287 0.0
7
Structure 89; Occurance: 20
C 2.646084829917863 -1.4040737374013903 0.0
C 3.3701905201561617 -0.6878083522963409 0.0
C 3.6066488298406107 0.30033839279566193 0.0
C 3.284581333000575 1.2586785848219957 0.0
C 4.279179507399203 1.0586205566310904 0.0
C 5.273568603468217 0.8499126622709678 0.0
C 4.599794258197387 0.0962064034855834 0.0
7
Structure 90; Occurance: 2
C 3.2657297917700006 0.6438248222451067 0.0
C 4.024015299711479 -0.1772417154455864 0.0
C 4.271603680657367 0.8122232210980205 0.0
C 5.225608501763 0.4735382760359445 0.0
C 5.737081629166414 1.350470024879433 0.0
C 6.23993394917041 0.4656890933860548 0.0
C 5.720377431403989 -0.41771552572303217 0.0
7
Structure 91; Occurance: 3
C 3.9788083062141077 0.022545026427768396 0.0
C 4.021055515102276 -0.99269065402612 0.0
C 4.921764778207575 -1.4654208849637906 0.0
C 4.872694077343151 -0.45115658791036406 0.0
C 4.9749020552915795 0.5641231555863888 0.0
C 5.980807243575815 0.6984696640460083 0.0
C 5.874110057836463 -0.3124890049923327 0.0
7
Structure 92; Occurance: 23
C 5.077557329095585 -0.08345412078479365 0.0
C 4.087115770459338 0.12893966376193539 0.0
C 4.4019141589813335 -0.8337059434277057 0.0
C 4.117608547647253 -1.8024962672677096 0.0
C 5.09826444481778 -2.0475879197836315 0.0
C 5.381565370077668 -1.0755611317284985 0.0
C 6.3783704771318055 -1.2727087373116137 0.0
7
Structure 93; Occurance: 9
C 3.01236277121142 -0.7896779181602052 0.0
C 3.8915770615688774 -0.2809604942349348 0.0
C 3.5040866148365466 0.6606089640650491 0.0
C 4.444164783545213 1.046136942684264 0.0
C 5.291636327999375 0.48889542780020145 0.0
C 4.8930369547453525 -0.4399277101126255 0.0
C 5.903780204070522 -0.33067462113689505 0.0
7
Structure 94; Occurance: 3
C 3.659381142566063 -1.015519551694853 0.0
C 4.581625434364587 -1.4591179915397567 0.0
C 4.482482152187328 -0.4307650976078839 0.0
C 4.241236969440613 0.5527993099125721 0.0
C 5.262152093420611 0.4914554432604173 0.0
C 5.495560169443423 -0.4915556219833008 0.0
C 5.591007411163479 -1.500189573405953 0.0
7
Structure 95; Occurance: 7
C 4.477597895123314 0.02191037265875523 0.0
C 3.6338190952897347 0.5834077516319089 0.0
C 3.5130369428213633 1.5850017985430882 0.0
C 4.5253265649086 1.6419251853507095 0.0
C 5.102977097887621 0.8169362797082549 0.0
C 5.870404158851736 0.15039054135806246 0.0
C 6.053907955469889 1.1561684104386512 0.0
7
Structure 96; Occurance: 4
C 3.6007751932194627 -0.8087757678777842 0.0
C 4.055045628823011 0.09434177769817169 0.0
C 3.111972793073485 0.4717054406842765 0.0
C 3.916096681444821 1.1026283802119918 0.0
C 4.9305891682172645 1.2182121610584813 0.0
C 5.057541015617377 0.2104899421362574 0.0
C 6.07242184659598 0.20563217926809094 0.0
7
Structure 97; Occurance: 18
C 2.4445204042458526 2.8148909923607084 0.0
C 1.9979770595578072 1.897117286778399 0.0
C 2.725914436070363 1.1860561603716442 0.0
C 3.161401567327785 2.103055081853068 0.0
C 4.171026708212694 2.197466157654441 0.0
C 3.7463053762382224 1.2784276545911124 0.0
C 4.517732678310851 0.6073332250848255 0.0
7
Structure 98; Occurance: 18
C 2.7802391193172435 1.1616179543515386 0.0
C 3.1623037540363645 2.252892010655948 0.0
C 3.7579812192573545 1.4337455709158125 0.0
C 4.507362840016665 0.7399210618828203 0.0
C 5.388215592831692 1.238288596730158 0.0
C 5.377299114164811 0.2176896029216616 0.0
C 6.320297291462279 -0.15909821332128712 0.0
7
Structure 99; Occurance: 1
C 3.991255212904365 0.2488566698081044 0.0
C 4.109973613485105 -0.7600637733320754 0.0
C 5.046601477059951 -1.1553960209143275 0.0
C 4.928482088454065 -0.14735099688860437 0.0
C 5.86620795436808 -0.5359318027932426 0.0
C 5.728402431123621 0.4723847178011241 0.0
C 4.792359672372376 0.8621491948876465 0.0
7
Structure 100; Occurance: 8
C 3.893575973504264 -0.6727882009136575 0.0
C 2.8753559478575745 -0.5765141736062014 0.0
C 2.750123097111623 0.4313689047516284 0.0
C 2.157692459742807 1.2538355600612745 0.0
C 3.1714028709747266 1.3529558254111462 0.0
C 4.177272005441229 1.2031002030019993 0.0
C 4.383898256479491 0.2080048224512357 0.0
7
Structure 101; Occurance: 8
C 3.968350388243507 -0.49200473088262114 0.0
C 3.038834782697435 -0.9252292347646658 0.0
C 3.1348370093011946 0.08389425004498241 0.0
C 2.17006858467547 0.3882338389787951 0.0
C 2.913052133410867 1.0864587585754621 0.0
C 3.927792277510699 1.076450350676291 0.0
C 4.60645455604388 0.31849600898208735 0.0
7
Structure 102; Occurance: 8
C 2.986387003662225 -1.367372641947018 0.0
C 3.426674795377776 -0.45204348747271134 0.0
C 2.9160221325520244 0.4176854102003034 0.0
C 2.9453049533510804 1.4257746792351564 0.0
C 3.80838168083496 0.8992732237897841 0.0
C 4.317842806237794 0.020167731797210098 0.0
C 5.305638035781927 0.27741183095947514 0.0
7
Structure 103; Occurance: 7
C 2.7991666244366207 -0.30957103283684145 0.0
C 2.4911297341264613 0.6540515372216625 0.0
C 2.1825180057945026 1.6136872027485951 0.0
C 3.1757568134827228 1.4033315129758146 0.0
C 4.164664514950489 1.1915394646321897 0.0
C 3.479580953718913 0.4392678748681189 0.0
C 4.286134784544897 -0.17544599878919867 0.0
7
Structure 104; Occurance: 7
C 2.0452826849341483 -0.4312749564712282 0.0
C 1.9882186690692785 0.5831139401946674 0.0
C 2.8968972646815487 0.12428050594743922 0.0
C 3.9123663422041206 0.19933112063897088 0.0
C 3.381710603288524 -0.764778559361001 0.0
C 4.376472489479809 -0.9411019267168904 0.0
C 4.879773584383259 -1.8181272618381534 0.0
7
Structure 105; Occurance: 2
C 2.3913056533984696 0.8508008826927053 0.0
C 2.2766421077366035 -0.3168055725003934 0.0
C 3.162210615541362 0.19035418115609984 0.0
C 3.59602073671946 -0.7263640583721638 0.0
C 4.170585467715991 0.11425494642926395 0.0
C 4.686166852195236 0.9907311032310212 0.0
C 5.182688996695816 0.10238580062789066 0.0
7
Structure 106; Occurance: 2
C 2.776355311606456 0.39117016808822885 0.0
C 3.770757677247182 0.20079118169059548 0.0
C 4.215795644531076 1.1075933559436497 0.0
C 5.219787837836598 0.9472292263937843 0.0
C 4.7685084921425105 0.037365174057753255 0.0
C 5.734438907812673 -0.2641424238407648 0.0
C 6.197508025299628 0.6402308276075992 0.0
7
Structure 107; Occurance: 1
C 3.0888016953984736 0.7607994932470853 0.0
C 2.8824479084921073 -0.23100904972448189 0.0
C 3.8934450877226445 -0.23051553889693405 0.0
C 4.098586113894601 0.7601255692916514 0.0
C 4.856494009049128 0.08646724607536597 0.0
C 5.066038713652809 1.0782471301396679 0.0
C 4.166825074981603 1.7684421227279765 0.0
7
Structure 108; Occurance: 3
C 3.0312305181531527 0.44408727724499464 0.0
C 2.896447899173767 -0.5599160664457022 0.0
C 3.83397271465571 -0.17438956368977612 0.0
C 4.319353576414859 0.7275458387866859 0.0
C 4.840214454721613 -0.265607714988904 0.0
C 5.327131419121731 0.6164765032862569 0.0
C 6.28574040533876 0.24726796231827858 0.0
7
Structure 109; Occurance: 2
C 3.201026463309075 1.6054894342898625 0.0
C 4.069596876501819 2.167892845192666 0.0
C 4.106662750302414 1.1512825707593173 0.0
C 3.71649471095997 0.22183647304021922 0.0
C 4.72263879067945 0.34390900294732263 0.0
C 5.665223239528773 0.7068263040575088 0.0
C 5.050732777652812 1.5129682910259508 0.0
7
Structure 110; Occurance: 3
C 4.78352141348385 -0.3868321514306731 0.0
C 4.004334114172059 -1.0379711029064738 0.0
C 4.9529711852168194 -1.3852311613072636 0.0
C 6.0438055170431575 -1.7108961790170893 0.0
C 5.734833329732872 -0.7496643618697263 0.0
C 6.709869026619829 -0.45705738338280355 0.0
C 5.975651822137755 0.23555150069386152 0.0
7
Structure 111; Occurance: 2
C 2.000380877027546 -0.19866102744694808 0.0
C 2.907204700506542 -0.6515968948048331 0.0
C 3.4415885248363325 -1.5092449558634027 0.0
C 3.916072012952573 -0.6179190328709419 0.0
C 4.315823316184104 0.3121885502691962 0.0
C 4.894819391360923 -0.8946575747627902 0.0
C 5.6044921636828615 -0.1629972181967212 0.0
7
Structure 112; Occurance: 8
C 1.9922614486727022 0.20620426262378885 0.0
C 2.4952211796277917 -0.6702440945934947 0.0
C 3.1288400257525084 0.12073246217644365 0.0
C 3.882510695059744 -0.5577938009828766 0.0
C 4.091374369931146 0.43308380519009454 0.0
C 3.426566804169183 1.192446406319882 0.0
C 4.517312198864888 1.3508920557479387 0.0
7
Structure 113; Occurance: 1
C 3.1098041564341172 -0.39397071182052823 0.0
C 2.8541294753561157 0.5896058566792698 0.0
C 3.774120826462087 1.010166880292004 0.0
C 4.753968882855787 0.7342068343503046 0.0
C 4.027253520043459 0.029704318817646083 0.0
C 4.865242472662695 -0.5472673580594447 0.0
C 5.609060887408869 0.16458532350701857 0.0
7
Structure 114; Occurance: 2
C 3.2893997670018797 -0.3952727162299428 0.0
C 2.552251152287226 0.46702682223236036 0.0
C 3.5592194331770193 0.5816063350580831 0.0
C 4.539291259437797 0.8340192198311818 0.0
C 4.271079441905552 -0.1396273946683277 0.0
C 4.1290726729909695 -1.1404184651270983 0.0
C 4.8420981279591 -1.863749995130497 0.0
7
Structure 115; Occurance: 1
C 2.5047667722968465 0.5709760162154618 0.0
C 3.5182261627187126 1.156105254241234 0.0
C 3.4250434820226263 0.1414760211045561 0.0
C 3.3320958743833673 -0.8700787355726787 0.0
C 4.251884578256125 -0.4484947362494357 0.0
C 4.344897684313555 0.5653033274727205 0.0
C 5.166440724006092 -0.023933022295866215 0.0
7
Structure 116; Occurance: 2
C 2.391399033159747 0.37259939650587637 0.0
C 3.304571022915403 -0.1120397380273902 0.0
C 4.314874724076408 -0.1894505874367726 0.0
C 3.75213666835322 0.7962801356606521 0.0
C 4.32462712333442 1.630339720197084 0.0
C 4.7759847454460855 0.7206852604245944 0.0
C 5.721625663986301 0.3648470448153016 0.0
7
Structure 117; Occurance: 1
C 2.25797800114815 -0.6832293906164084 0.0
C 2.9150022945242213 0.2442484785030557 0.0
C 3.2659620040592343 -0.7014881120640495 0.0
C 4.263328411117347 -0.8786939549218925 0.0
C 3.920131417940819 0.07405406781716514 0.0
C 4.864222742278014 0.4535801664228445 0.0
C 4.055326819973723 1.0759588137964486 0.0
